Version 4
SHEET 1 880 680
WIRE -32 80 -160 80
WIRE 160 80 48 80
WIRE 400 80 352 80
WIRE 512 80 480 80
WIRE 512 96 512 80
WIRE -160 112 -160 80
WIRE 416 144 352 144
WIRE 416 160 416 144
WIRE 160 176 112 176
WIRE 368 176 352 176
WIRE 112 192 112 176
WIRE 512 192 512 176
WIRE -160 224 -160 192
WIRE 368 224 368 176
WIRE 368 224 320 224
WIRE 416 224 368 224
WIRE 320 256 320 224
WIRE 416 272 416 224
WIRE 112 304 112 272
WIRE 320 368 320 336
WIRE 368 368 320 368
WIRE 416 368 416 336
WIRE 416 368 368 368
WIRE 368 384 368 368
FLAG -160 224 0
FLAG 416 160 0
FLAG 512 192 0
FLAG 112 304 0
FLAG 368 384 0
SYMBOL Optos\\4N25 256 144 R0
SYMATTR InstName U1
SYMBOL voltage -160 96 R0
WINDOW 123 0 0 Left 0
WINDOW 39 0 0 Left 0
SYMATTR InstName V1
SYMATTR Value PULSE(0 2.7 0.125m 1n 1n 0.125m 0.25m)
SYMBOL voltage 512 80 R0
WINDOW 123 0 0 Left 0
WINDOW 39 0 0 Left 0
SYMATTR InstName V2
SYMATTR Value 5
SYMBOL res 64 64 R90
WINDOW 0 0 56 VBottom 2
WINDOW 3 32 56 VTop 2
SYMATTR InstName R2
SYMATTR Value 50
SYMBOL res 96 176 R0
SYMATTR InstName R1
SYMATTR Value 100
SYMBOL res 496 64 R90
WINDOW 0 0 56 VBottom 2
WINDOW 3 32 56 VTop 2
SYMATTR InstName R3
SYMATTR Value {R}
SYMBOL res 304 240 R0
SYMATTR InstName R4
SYMATTR Value {Ro}
SYMATTR SpiceLine tol=0
SYMBOL cap 400 272 R0
SYMATTR InstName C1
SYMATTR Value {Co}
TEXT -194 328 Left 2 !.tran 0 500u 0
TEXT -192 376 Left 2 !.step param Tab  list 1 2 3 4 5 6
TEXT -192 400 Left 2 !.param Ro table(Tab, 1Meg, 1Meg, 1Meg, 10Meg, 10Meg, 10Meg)
TEXT -192 424 Left 2 !.param Co table(Tab, 126p, 126p, 126p, 12.6p, 12.6p, 12.6p)
TEXT -184 448 Left 2 !.param R table(Tab, 470, 2k7,10k, 470, 2k7,10k)
